/*--------------------------------*- C++ -*----------------------------------*\
  =========                 |
  \\      /  F ield         | OpenFOAM: The Open Source CFD Toolbox
   \\    /   O peration     | Website:  https://openfoam.org
    \\  /    A nd           | Version:  2312
     \\/     M anipulation  |
\*---------------------------------------------------------------------------*/
FoamFile
{
    version         2.0;
    format          ascii;
    class           dictionary;
    object          sample;
}
// * * * * * * * * * * * * * * * * * * * * * * * * * * * * * * * * * * * * * //

type            	sets;
libs            	(sampling);
interpolationScheme 	cellPointFace;
setFormat       	raw;
fields          	( T );
sets
{
                   a1 
		    {
			type        face;   
			axis        z;
			start       (-0.0145 0 0.469);
			end         (-0.0145 0 -0.181);
			nPoints     300;
		    }
		    
                   a2 
		    {
			type        face;       
			axis        z;
			start       (0.0145 0 0.469);
			end         (0.0145 0 -0.181);
			nPoints     300;
		    }

                   b1 
		    {
			type        face;       
			axis        z;
			start       (0 0.0144 0.469);
			end         (0 0.0144 -0.181);
			nPoints     300;
		    }   
 
                    b2 
		    {
			type        face;       
			axis        z;
			start       (0 -0.0146 0.469);
			end         (0 -0.0146 -0.181);
			nPoints     300;
		    } 

                    c1 
		    {
			type        face;       
			axis        z;
			start       (-0.0102 0.0102 0.469);
			end         (-0.0102 0.0102 -0.181);
			nPoints     300;
		    }

                    c2 
		    {
			type        face;       
			axis        z;
			start       (0.0103 -0.0103 0.469);
			end         (0.0103 -0.0103 -0.181);
			nPoints     300;
		    }

                  d1 
		    {
			type        face;       
			axis        z;
			start       (0.0103 0.0101 0.469);
			end         (0.0103 0.0101 -0.181);
			nPoints     300;
		    }

                  d2 
		    {
			type        face;       
			axis        z;
			start       (-0.0103 -0.0104 0.469);
			end         (-0.0103 -0.0104 -0.181);
			nPoints     300;
		    }
}

// ************************************************************************* //
