/*--------------------------------*- C++ -*----------------------------------*\
| =========                 |                                                 |
| \\      /  F ield         | OpenFOAM: The Open Source CFD Toolbox           |
|  \\    /   O peration     | Version:  v2312                                 |
|   \\  /    A nd           | Website:  www.openfoam.com                      |
|    \\/     M anipulation  |                                                 |
\*---------------------------------------------------------------------------*/
FoamFile
{
    version     2.0;
    format      ascii;
    class       dictionary;
    location    "system";
    object      controlDict;
}
// * * * * * * * * * * * * * * * * * * * * * * * * * * * * * * * * * * * * * //

application     	chtMultiRegionFoam;

startFrom       	latestTime;

startTime       	0;

stopAt          	endTime;

endTime         	23.2;  

deltaT          	0.05; 

writeControl    	timeStep;

writeInterval   	1;

purgeWrite      	0;

writeFormat     	binary;

writePrecision  	7;

writeCompression 	uncompressed;

timeFormat      	general;

timePrecision   	6;

runTimeModifiable	yes;  

adjustTimeStep     	no;  

maxCo           0.5;

maxDi           0.5;  
  
functions
{
	wallHeatFlux
    	{
		libs 			("libfieldFunctionObjects.so");
		type 			wallHeatFlux;
	    	region 			domain1;
	    	writeControl    	timeStep;
       	        writeInterval   	$writeInterval;
    	}
    	
     wallHeatFlux_particle
    	{
		libs 			("libfieldFunctionObjects.so");
		type 			wallHeatFlux;
	    	region 			SOLID_Particle;
	    	writeControl    	timeStep;
       	        writeInterval   	$writeInterval;
    	}

	gradT
		{
	    	type            	grad;
	    	libs            	(fieldFunctionObjects);
	   	field           	T;
		region          	domain1;
		writeControl    	timeStep;
       	        writeInterval   	$writeInterval;
		}
}

// ************************************************************************* //
