/*--------------------------------*- C++ -*----------------------------------*\
  =========                 |
  \\      /  F ield         | OpenFOAM: The Open Source CFD Toolbox
   \\    /   O peration     | Website:  https://openfoam.org
    \\  /    A nd           | Version:  11
     \\/     M anipulation  |
\*---------------------------------------------------------------------------*/
FoamFile
{
    format      ascii;
    class       dictionary;
    location    "system/pipe";
    object      fvSolution;
}
// * * * * * * * * * * * * * * * * * * * * * * * * * * * * * * * * * * * * * //

solvers
{
    "rho.*"
    {
        solver          PCG;
        preconditioner  DIC;
        tolerance       0;
        relTol          0;
    }

    p_rgh
    {
        solver          PCG;
        preconditioner  DIC;
        tolerance       1e-7;
        relTol          0.05;
    }

    p_rghFinal
    {
        $p_rgh;
        relTol          0;
    }

    "(U|h|e|k|epsilon|R)"
    {
        solver          PBiCGStab;
        preconditioner  DILU;
        tolerance       1e-6;
        relTol          0.1;
    }

    "(U|h|e|k|epsilon|R)Final"
    {
        $U;
        relTol          0;
    }
    
    Ii
    {
        solver              GAMG;
        tolerance           1e-4;
        relTol              0.1;
        smoother            symGaussSeidel;
        maxIter             10;
        nPostSweeps         1;
    }
    
}

PIMPLE
{
    momentumPredictor 		no;
    nOuterCorrectors 		0;
    nCorrectors     		2;
    nNonOrthogonalCorrectors 	0;
    
//    frozenFlow	    		yes; 
      
    pRefCell 			0; 
    pRefValue 			100000;  //100000;  // 0;
}

residualControl
{
    U   1e-06;
    p   1e-06;
    h	1e-06;
}

relaxationFactors
{
    fields
    {
        rho             1;
        p_rgh           0.7;
    }
    equations
    {
       ".*"            1.0;
/*       
        U               0.3;
        h               0.3;
        nuTilda         0.7;
        k               0.7;
        epsilon         0.7;
        omega           0.7;
        G               0.3;
        "ILambda.*"     0.3;
        qr              0.3;
*/
    }
}


// ************************************************************************* //
