/*--------------------------------*- C++ -*----------------------------------*\
| =========                 |                                                 |
| \\      /  F ield         | OpenFOAM: The Open Source CFD Toolbox           |
|  \\    /   O peration     | Version:  v2312                                 |
|   \\  /    A nd           | Website:  www.openfoam.com                      |
|    \\/     M anipulation  |                                                 |
\*---------------------------------------------------------------------------*/
FoamFile
{
    format      binary;
    class       volScalarField;
    location    "0/SOLID_Thickness";
    object      p;
}
// * * * * * * * * * * * * * * * * * * * * * * * * * * * * * * * * * * * * * //
pInitial	          100000;

dimensions      [1 -1 -2 0 0 0 0];

internalField   uniform $pInitial;

boundaryField
{
    ".*"
    {
        type            calculated;
        value           uniform $pInitial;
    }
    
	"front|back|top|bottom"
 		{
 			type		empty; 
 		}
}


// ************************************************************************* //
