/*--------------------------------*- C++ -*----------------------------------*\
| =========                 |                                                 |
| \\      /  F ield         | OpenFOAM: The Open Source CFD Toolbox           |
|  \\    /   O peration     | Version:  v2106                                 |
|   \\  /    A nd           | Website:  www.openfoam.com                      |
|    \\/     M anipulation  |                                                 |
\*---------------------------------------------------------------------------*/
FoamFile
{
    version     2.0;
    format      ascii;
    class       dictionary;
    object      boundaryRadiationProperties;
}
// * * * * * * * * * * * * * * * * * * * * * * * * * * * * * * * * * * * * * //

	".*"
	{

		    type            opaqueDiffusive;
		    wallAbsorptionEmissionModel
		    {
//			type    solidAbsorption;  

			type            constantAbsorption;
			absorptivity    1.0;
			emissivity      1.0;
		    };  
		
	}
//---------------------------------------------------------------
	flux_in
	{
		    type           opaqueDiffusive;  // transparent;		    
		    wallAbsorptionEmissionModel
		    {

				   type            constantAbsorption;
				   absorptivity    1.0;
				   emissivity      1.0;
//				   E               0.0;
		     };
		
	 }
//---------------------------------------------------------------
	"fluid_cavity_to_.*"
	{
		    type            opaqueDiffusive;
		    wallAbsorptionEmissionModel
		    {
//			type    solidAbsorption;
        
			type            constantAbsorption;
			absorptivity    1.0;
			emissivity      1.0;                  
		    };
	}  
//--------------------------------------------------------------- 
/*
    type        opaqueReflective;

    // Fraction of the reflected is diffussive
    fd          0.0; // 0: all specular 1: all diffusive

    wallAbsorptionEmissionModel
    {
        type            multiBandAbsorption;
        absorptivity    (0.1 0.1);
        emissivity      (0.1 0.1);
    };    
*/


	/*
	    type            lookup;
	    emissivity      1.0;
	    absorptivity    1.0;
	    transmissivity  0.0;
	*/


// ************************************************************************* //
