/*--------------------------------*- C++ -*----------------------------------*\
| =========                 |                                                 |
| \\      /  F ield         | OpenFOAM: The Open Source CFD Toolbox           |
|  \\    /   O peration     | Version:  v2106                                 |
|   \\  /    A nd           | Website:  www.openfoam.com                      |
|    \\/     M anipulation  |                                                 |
\*---------------------------------------------------------------------------*/
FoamFile
{
    version     2.0;
    format      ascii;
    class       volScalarField;
    object      IDefault;
}
// * * * * * * * * * * * * * * * * * * * * * * * * * * * * * * * * * * * * * //

dimensions      [1 0 -3 0 0 0 0];

internalField   uniform 0;

boundaryField
{

//--------------------------------------------------------------------    
    "fluid_cavity_to_.*"
        {
                type            greyDiffusiveRadiation;
                value           uniform 0;
        }        
//--------------------------------------------------------------------  
    flux_in			// patch - external heat 
	{
                type            greyDiffusiveRadiation;
                value           uniform 0;            
//                T               T;
//    		qRadExt         4000000;
//    		qRadExtDir      (1 0 0);
	 }
//--------------------------------------------------------------------    	 
	wall-fluid_cavity	// wall - Insulation
	    {
                type            greyDiffusiveRadiation;
                value           uniform 0;
	    }
//--------------------------------------------------------------------
	 p_out			// outlet 	for CNRS case**
	    {    
                 type            greyDiffusiveRadiation;
                 value           uniform 0;
	    }
//--------------------------------------------------------------------	    
	 v_in			// inlet 	for CNRS case**
	    {
                type            greyDiffusiveRadiation;
                value           uniform 0;          	uniform 0;
	    }
}

/*
	 v_in
    {
        type            wideBandDiffusiveRadiation;
        value           uniform 0;
    }
*/
// ************************************************************************* //
