/*--------------------------------*- C++ -*----------------------------------*\
| =========                 |                                                 |
| \\      /  F ield         | OpenFOAM: The Open Source CFD Toolbox           |
|  \\    /   O peration     | Version:  2312                                  |
|   \\  /    A nd           | Website:  www.openfoam.com                      |
|    \\/     M anipulation  |                                                 |
\*---------------------------------------------------------------------------*/
FoamFile
{
    version     2.0;
    format      binary;
    arch        "LSB;label=32;scalar=64";
    class       volScalarField;
    location    "0/fluid_ar";
    object      cellToRegion;
}
// * * * * * * * * * * * * * * * * * * * * * * * * * * * * * * * * * * * * * //

dimensions      [0 0 0 0 0 0 0];

internalField   uniform 3;

boundaryField
{
    fluid_in
    {
        type            zeroGradient;
    }
    fluid_out
    {
        type            zeroGradient;
    }
    fluid_ar_to_tube
    {
        type            calculated;
        value           uniform 0;
    }
}


// ************************************************************************* //
