/*--------------------------------*- C++ -*----------------------------------*\
| =========                 |                                                 |
| \\      /  F ield         | OpenFOAM: The Open Source CFD Toolbox           |
|  \\    /   O peration     | Version:  2.1.x                                 |
|   \\  /    A nd           | Web:      www.OpenFOAM.org                      |
|    \\/     M anipulation  |                                                 |
\*---------------------------------------------------------------------------*/
FoamFile
{
    version     2.0;
    format      ascii;
    class       dictionary;
    object      solidThermophysicalProperties;
}
// * * * * * * * * * * * * * * * * * * * * * * * * * * * * * * * * * * * * * //

thermoType
{
    type            heSolidThermo;
    mixture         pureMixture;
    transport       tabulated;  //constIso;
    thermo          hTabulated; //hConst;
    equationOfState icoTabulated; //rhoConst;
    specie          specie;
    energy          sensibleEnthalpy;
}

// We use somehow a  " Ultraboard 1600-400​ " according to the data provided by CNRS

mixture
{
    specie
    {
        nMoles      1;
        molWeight   200;  // arbitary large number 
    }

    transport
    {
        kappa   //lookupTable; //0.22;
        (
	    (300.00 0.1500)
	    (600.00 0.1500)
	    (800.00 0.1500)
	    (900.00 0.1500)	    	    	    
	    (1073.15 0.1500)
	    (1081.31 0.1514)
	    (1089.48 0.1529)
	    (1097.64 0.1543)
	    (1105.80 0.1557)
	    (1113.97 0.1571)
	    (1122.13 0.1586)
	    (1130.29 0.1600)
	    (1138.46 0.1614)
	    (1146.62 0.1629)
	    (1154.78 0.1643)
	    (1162.95 0.1657)
	    (1171.11 0.1671)
	    (1179.27 0.1686)
	    (1187.44 0.1700)
	    (1195.60 0.1714)
	    (1203.76 0.1729)
	    (1211.93 0.1743)
	    (1220.09 0.1757)
	    (1228.25 0.1771)
	    (1236.42 0.1786)
	    (1244.58 0.1800)
	    (1252.74 0.1814)
	    (1260.91 0.1829)
	    (1269.07 0.1843)
	    (1277.23 0.1857)
	    (1285.39 0.1871)
	    (1293.56 0.1886)
	    (1301.72 0.1900)
	    (1309.88 0.1914)
	    (1318.05 0.1929)
	    (1326.21 0.1943)
	    (1334.37 0.1957)
	    (1342.54 0.1971)
	    (1350.70 0.1986)
	    (1358.86 0.2000)
	    (1367.03 0.2014)
	    (1375.19 0.2029)
	    (1383.35 0.2043)
	    (1391.52 0.2057)
	    (1399.68 0.2071)
	    (1407.84 0.2086)
	    (1416.01 0.2100)
	    (1424.17 0.2114)
	    (1432.33 0.2129)
	    (1440.50 0.2143)
	    (1448.66 0.2157)
	    (1456.82 0.2171)
	    (1464.99 0.2186)
	    (1473.15 0.2200)
	    (5000.00 0.2200)
        );
    }

    thermodynamics
    {
        Hf      0;
	Sf	0;                                                     
        Cp      //1000; // typically around 750 J/(kg·K) for similar materials
	(
            (300.00 	800)
            (1073.15 	800)
            (1150.00 	800)
            (1225.00 	800)
            (1300.00 	800)
            (1375.00 	800)
            (1450.00 	800)
            (1473.15 	800)
            (5000.00 	800)
	);
    }

    equationOfState
    {
        rho     //700;
      	(
            (300.00 	400)
            (1073.15 	400)
            (1150.00 	400)
            (1225.00 	400)
            (1300.00 	400)
            (1375.00 	400)
            (1450.00 	400)
            (1473.15 	400)
            (5000.00 	400)
       	);        
    }

}

// ************************************************************************* //
